 xtb: 6.7.1 (edcfbbe)
          04032517023D

 33 32  0     0  0            999 V2000
    4.3598   -1.6846    0.7805 C   0  0  0  0  0  0  0  0  0  0  0  0
    4.1230   -0.2301    1.1723 C   0  0  0  0  0  0  0  0  0  0  0  0
    3.4446    0.5876    0.0721 C   0  0  0  0  0  0  0  0  0  0  0  0
    1.9994    0.1692   -0.1926 C   0  0  0  0  0  0  0  0  0  0  0  0
    1.3365    1.0755   -1.2287 C   0  0  0  0  0  0  0  0  0  0  0  0
   -0.0733    0.6284   -1.6177 C   0  0  0  0  0  0  0  0  0  0  0  0
   -1.0933    0.7914   -0.4918 C   0  0  0  0  0  0  0  0  0  0  0  0
   -2.5044    0.4382   -0.9599 C   0  0  0  0  0  0  0  0  0  0  0  0
   -3.5716    0.6530    0.1164 C   0  0  0  0  0  0  0  0  0  0  0  0
   -3.5316   -0.3696    1.2553 C   0  0  0  0  0  0  0  0  0  0  0  0
   -4.0132   -1.6451    0.8824 O   0  0  0  0  0  0  0  0  0  0  0  0
    3.4189   -2.2072    0.6314 H   0  0  0  0  0  0  0  0  0  0  0  0
    4.9128   -2.1999    1.5623 H   0  0  0  0  0  0  0  0  0  0  0  0
    4.9356   -1.7401   -0.1407 H   0  0  0  0  0  0  0  0  0  0  0  0
    3.5123   -0.1927    2.0772 H   0  0  0  0  0  0  0  0  0  0  0  0
    5.0853    0.2320    1.4047 H   0  0  0  0  0  0  0  0  0  0  0  0
    3.4545    1.6410    0.3633 H   0  0  0  0  0  0  0  0  0  0  0  0
    4.0225    0.4962   -0.8507 H   0  0  0  0  0  0  0  0  0  0  0  0
    1.4437    0.2097    0.7460 H   0  0  0  0  0  0  0  0  0  0  0  0
    1.9741   -0.8596   -0.5557 H   0  0  0  0  0  0  0  0  0  0  0  0
    1.2971    2.0972   -0.8438 H   0  0  0  0  0  0  0  0  0  0  0  0
    1.9581    1.0869   -2.1275 H   0  0  0  0  0  0  0  0  0  0  0  0
   -0.0444   -0.4172   -1.9335 H   0  0  0  0  0  0  0  0  0  0  0  0
   -0.4022    1.2215   -2.4746 H   0  0  0  0  0  0  0  0  0  0  0  0
   -1.0808    1.8266   -0.1432 H   0  0  0  0  0  0  0  0  0  0  0  0
   -0.8122    0.1548    0.3474 H   0  0  0  0  0  0  0  0  0  0  0  0
   -2.5230   -0.5981   -1.3046 H   0  0  0  0  0  0  0  0  0  0  0  0
   -2.7537    1.0658   -1.8186 H   0  0  0  0  0  0  0  0  0  0  0  0
   -3.4509    1.6478    0.5475 H   0  0  0  0  0  0  0  0  0  0  0  0
   -4.5617    0.6008   -0.3413 H   0  0  0  0  0  0  0  0  0  0  0  0
   -4.1941   -0.0451    2.0614 H   0  0  0  0  0  0  0  0  0  0  0  0
   -2.5160   -0.4557    1.6616 H   0  0  0  0  0  0  0  0  0  0  0  0
   -3.4665   -1.9871    0.1619 H   0  0  0  0  0  0  0  0  0  0  0  0
  1  2  1  0  0  0  0
  2  3  1  0  0  0  0
  3  4  1  0  0  0  0
  4  5  1  0  0  0  0
  5  6  1  0  0  0  0
  6  7  1  0  0  0  0
  7  8  1  0  0  0  0
  8  9  1  0  0  0  0
  9 10  1  0  0  0  0
 10 11  1  0  0  0  0
  1 12  1  0  0  0  0
  1 13  1  0  0  0  0
  1 14  1  0  0  0  0
  2 15  1  0  0  0  0
  2 16  1  0  0  0  0
  3 17  1  0  0  0  0
  3 18  1  0  0  0  0
  4 19  1  0  0  0  0
  4 20  1  0  0  0  0
  5 21  1  0  0  0  0
  5 22  1  0  0  0  0
  6 23  1  0  0  0  0
  6 24  1  0  0  0  0
  7 25  1  0  0  0  0
  7 26  1  0  0  0  0
  8 27  1  0  0  0  0
  8 28  1  0  0  0  0
  9 29  1  0  0  0  0
  9 30  1  0  0  0  0
 10 31  1  0  0  0  0
 10 32  1  0  0  0  0
 11 33  1  0  0  0  0
M  END
