 xtb: 6.7.1 (edcfbbe)
          04032517493D

 40 40  0     0  0            999 V2000
   -4.5443   -1.3184    1.0014 C   0  0  0  0  0  0  0  0  0  0  0  0
   -3.3662   -1.9907    0.3210 C   0  0  0  0  0  0  0  0  0  0  0  0
   -2.6941   -1.0691   -0.5583 O   0  0  0  0  0  0  0  0  0  0  0  0
   -1.3749   -0.2929   -0.1348 P   0  0  0  0  0  0  0  0  0  0  0  0
   -1.3282    0.2882    1.7328 S   0  0  0  0  0  0  0  0  0  0  0  0
   -1.2523    0.7697   -1.2915 O   0  0  0  0  0  0  0  0  0  0  0  0
   -1.7566    2.1073   -1.1149 C   0  0  0  0  0  0  0  0  0  0  0  0
   -3.2714    2.1383   -1.1292 C   0  0  0  0  0  0  0  0  0  0  0  0
   -0.2980   -1.4294   -0.5826 O   0  0  0  0  0  0  0  0  0  0  0  0
    1.0054   -1.0827   -0.4284 C   0  0  0  0  0  0  0  0  0  0  0  0
    2.0171   -2.0061   -0.6201 C   0  0  0  0  0  0  0  0  0  0  0  0
    3.3110   -1.5253   -0.4267 C   0  0  0  0  0  0  0  0  0  0  0  0
    3.5226   -0.2598   -0.0677 N   0  0  0  0  0  0  0  0  0  0  0  0
    2.4868    0.5427    0.0946 C   0  0  0  0  0  0  0  0  0  0  0  0
    1.2170    0.1724   -0.0871 N   0  0  0  0  0  0  0  0  0  0  0  0
    2.7473    1.9563    0.5197 C   0  0  0  0  0  0  0  0  0  0  0  0
    2.1632    2.1733    1.9183 C   0  0  0  0  0  0  0  0  0  0  0  0
    2.1288    2.9289   -0.4844 C   0  0  0  0  0  0  0  0  0  0  0  0
    4.5028   -2.3995   -0.5996 C   0  0  0  0  0  0  0  0  0  0  0  0
   -5.0807   -2.0513    1.5954 H   0  0  0  0  0  0  0  0  0  0  0  0
   -4.1910   -0.5236    1.6549 H   0  0  0  0  0  0  0  0  0  0  0  0
   -5.2137   -0.8971    0.2569 H   0  0  0  0  0  0  0  0  0  0  0  0
   -3.6921   -2.8089   -0.3238 H   0  0  0  0  0  0  0  0  0  0  0  0
   -2.6572   -2.3694    1.0629 H   0  0  0  0  0  0  0  0  0  0  0  0
   -1.3753    2.5010   -0.1671 H   0  0  0  0  0  0  0  0  0  0  0  0
   -1.3313    2.6650   -1.9509 H   0  0  0  0  0  0  0  0  0  0  0  0
   -3.6473    1.6623   -2.0309 H   0  0  0  0  0  0  0  0  0  0  0  0
   -3.6561    1.6035   -0.2625 H   0  0  0  0  0  0  0  0  0  0  0  0
   -3.6123    3.1681   -1.0917 H   0  0  0  0  0  0  0  0  0  0  0  0
    1.8012   -3.0217   -0.9003 H   0  0  0  0  0  0  0  0  0  0  0  0
    3.8310    2.0925    0.5516 H   0  0  0  0  0  0  0  0  0  0  0  0
    1.0982    1.9517    1.9200 H   0  0  0  0  0  0  0  0  0  0  0  0
    2.3099    3.2049    2.2246 H   0  0  0  0  0  0  0  0  0  0  0  0
    2.6482    1.5206    2.6401 H   0  0  0  0  0  0  0  0  0  0  0  0
    1.0611    2.7427   -0.5612 H   0  0  0  0  0  0  0  0  0  0  0  0
    2.5770    2.7999   -1.4665 H   0  0  0  0  0  0  0  0  0  0  0  0
    2.2892    3.9512   -0.1550 H   0  0  0  0  0  0  0  0  0  0  0  0
    5.4056   -1.8016   -0.5404 H   0  0  0  0  0  0  0  0  0  0  0  0
    4.5188   -3.1512    0.1869 H   0  0  0  0  0  0  0  0  0  0  0  0
    4.4552   -2.9141   -1.5556 H   0  0  0  0  0  0  0  0  0  0  0  0
  1  2  1  0  0  0  0
  2  3  1  0  0  0  0
  3  4  1  0  0  0  0
  4  5  2  0  0  0  0
  4  6  2  0  0  0  0
  6  7  1  0  0  0  0
  7  8  1  0  0  0  0
  4  9  1  0  0  0  0
  9 10  1  0  0  0  0
 10 11  4  0  0  0  0
 11 12  4  0  0  0  0
 12 13  4  0  0  0  0
 13 14  4  0  0  0  0
 10 15  4  0  0  0  0
 14 15  4  0  0  0  0
 14 16  1  0  0  0  0
 16 17  1  0  0  0  0
 16 18  1  0  0  0  0
 12 19  1  0  0  0  0
  1 20  1  0  0  0  0
  1 21  1  0  0  0  0
  1 22  1  0  0  0  0
  2 23  1  0  0  0  0
  2 24  1  0  0  0  0
  7 25  1  0  0  0  0
  7 26  1  0  0  0  0
  8 27  1  0  0  0  0
  8 28  1  0  0  0  0
  8 29  1  0  0  0  0
 11 30  1  0  0  0  0
 16 31  1  0  0  0  0
 17 32  1  0  0  0  0
 17 33  1  0  0  0  0
 17 34  1  0  0  0  0
 18 35  1  0  0  0  0
 18 36  1  0  0  0  0
 18 37  1  0  0  0  0
 19 38  1  0  0  0  0
 19 39  1  0  0  0  0
 19 40  1  0  0  0  0
M  END
