 xtb: 6.7.1 (edcfbbe)
          04032517023D

 33 32  0     0  0            999 V2000
    6.3927   -0.3748    0.0001 C   0  0  0  0  0  0  0  0  0  0  0  0
    5.1296    0.4781    0.0047 C   0  0  0  0  0  0  0  0  0  0  0  0
    3.8648   -0.3776    0.0013 C   0  0  0  0  0  0  0  0  0  0  0  0
    2.5954    0.4709    0.0021 C   0  0  0  0  0  0  0  0  0  0  0  0
    1.3313   -0.3857    0.0008 C   0  0  0  0  0  0  0  0  0  0  0  0
    0.0623    0.4638   -0.0034 C   0  0  0  0  0  0  0  0  0  0  0  0
   -1.2015   -0.3931   -0.0007 C   0  0  0  0  0  0  0  0  0  0  0  0
   -2.4698    0.4577   -0.0103 C   0  0  0  0  0  0  0  0  0  0  0  0
   -3.7315   -0.4012    0.0019 C   0  0  0  0  0  0  0  0  0  0  0  0
   -4.9969    0.4561   -0.0273 C   0  0  0  0  0  0  0  0  0  0  0  0
   -6.1834   -0.3042    0.0710 O   0  0  0  0  0  0  0  0  0  0  0  0
    6.4222   -1.0157    0.8784 H   0  0  0  0  0  0  0  0  0  0  0  0
    7.2794    0.2543    0.0033 H   0  0  0  0  0  0  0  0  0  0  0  0
    6.4220   -1.0065   -0.8850 H   0  0  0  0  0  0  0  0  0  0  0  0
    5.1277    1.1193    0.8890 H   0  0  0  0  0  0  0  0  0  0  0  0
    5.1268    1.1274   -0.8738 H   0  0  0  0  0  0  0  0  0  0  0  0
    3.8680   -1.0211   -0.8817 H   0  0  0  0  0  0  0  0  0  0  0  0
    3.8663   -1.0255    0.8812 H   0  0  0  0  0  0  0  0  0  0  0  0
    2.5937    1.1179   -0.8783 H   0  0  0  0  0  0  0  0  0  0  0  0
    2.5932    1.1157    0.8842 H   0  0  0  0  0  0  0  0  0  0  0  0
    1.3354   -1.0327   -0.8795 H   0  0  0  0  0  0  0  0  0  0  0  0
    1.3314   -1.0298    0.8831 H   0  0  0  0  0  0  0  0  0  0  0  0
    0.0614    1.1060   -0.8871 H   0  0  0  0  0  0  0  0  0  0  0  0
    0.0601    1.1128    0.8753 H   0  0  0  0  0  0  0  0  0  0  0  0
   -1.2022   -1.0315    0.8855 H   0  0  0  0  0  0  0  0  0  0  0  0
   -1.1963   -1.0447   -0.8773 H   0  0  0  0  0  0  0  0  0  0  0  0
   -2.4736    1.0915   -0.9000 H   0  0  0  0  0  0  0  0  0  0  0  0
   -2.4718    1.1144    0.8622 H   0  0  0  0  0  0  0  0  0  0  0  0
   -3.7256   -1.0664   -0.8651 H   0  0  0  0  0  0  0  0  0  0  0  0
   -3.7495   -1.0210    0.9007 H   0  0  0  0  0  0  0  0  0  0  0  0
   -5.0145    1.0681   -0.9399 H   0  0  0  0  0  0  0  0  0  0  0  0
   -5.0149    1.1283    0.8341 H   0  0  0  0  0  0  0  0  0  0  0  0
   -6.2206   -0.9266   -0.6686 H   0  0  0  0  0  0  0  0  0  0  0  0
  1  2  1  0  0  0  0
  2  3  1  0  0  0  0
  3  4  1  0  0  0  0
  4  5  1  0  0  0  0
  5  6  1  0  0  0  0
  6  7  1  0  0  0  0
  7  8  1  0  0  0  0
  8  9  1  0  0  0  0
  9 10  1  0  0  0  0
 10 11  1  0  0  0  0
  1 12  1  0  0  0  0
  1 13  1  0  0  0  0
  1 14  1  0  0  0  0
  2 15  1  0  0  0  0
  2 16  1  0  0  0  0
  3 17  1  0  0  0  0
  3 18  1  0  0  0  0
  4 19  1  0  0  0  0
  4 20  1  0  0  0  0
  5 21  1  0  0  0  0
  5 22  1  0  0  0  0
  6 23  1  0  0  0  0
  6 24  1  0  0  0  0
  7 25  1  0  0  0  0
  7 26  1  0  0  0  0
  8 27  1  0  0  0  0
  8 28  1  0  0  0  0
  9 29  1  0  0  0  0
  9 30  1  0  0  0  0
 10 31  1  0  0  0  0
 10 32  1  0  0  0  0
 11 33  1  0  0  0  0
M  END
