 xtb: 6.7.1 (edcfbbe)
          04032517023D

 33 32  0     0  0            999 V2000
    5.6025    0.4110   -1.0876 C   0  0  0  0  0  0  0  0  0  0  0  0
    5.2353    0.1405    0.3674 C   0  0  0  0  0  0  0  0  0  0  0  0
    3.9081   -0.6024    0.5265 C   0  0  0  0  0  0  0  0  0  0  0  0
    2.6946    0.2283    0.1137 C   0  0  0  0  0  0  0  0  0  0  0  0
    1.3842   -0.5067    0.3871 C   0  0  0  0  0  0  0  0  0  0  0  0
    0.1670    0.3174   -0.0267 C   0  0  0  0  0  0  0  0  0  0  0  0
   -1.1432   -0.4172    0.2476 C   0  0  0  0  0  0  0  0  0  0  0  0
   -2.3598    0.4101   -0.1622 C   0  0  0  0  0  0  0  0  0  0  0  0
   -3.6678   -0.3282    0.1085 C   0  0  0  0  0  0  0  0  0  0  0  0
   -4.8815    0.5105   -0.2922 C   0  0  0  0  0  0  0  0  0  0  0  0
   -6.1060   -0.1754   -0.1327 O   0  0  0  0  0  0  0  0  0  0  0  0
    5.6193   -0.5180   -1.6533 H   0  0  0  0  0  0  0  0  0  0  0  0
    6.5874    0.8679   -1.1487 H   0  0  0  0  0  0  0  0  0  0  0  0
    4.8875    1.0848   -1.5516 H   0  0  0  0  0  0  0  0  0  0  0  0
    6.0259   -0.4600    0.8235 H   0  0  0  0  0  0  0  0  0  0  0  0
    5.1848    1.0869    0.9105 H   0  0  0  0  0  0  0  0  0  0  0  0
    3.9362   -1.5197   -0.0662 H   0  0  0  0  0  0  0  0  0  0  0  0
    3.7932   -0.8911    1.5744 H   0  0  0  0  0  0  0  0  0  0  0  0
    2.7523    0.4637   -0.9502 H   0  0  0  0  0  0  0  0  0  0  0  0
    2.7004    1.1719    0.6647 H   0  0  0  0  0  0  0  0  0  0  0  0
    1.3815   -1.4532   -0.1585 H   0  0  0  0  0  0  0  0  0  0  0  0
    1.3163   -0.7405    1.4522 H   0  0  0  0  0  0  0  0  0  0  0  0
    0.2338    0.5500   -1.0920 H   0  0  0  0  0  0  0  0  0  0  0  0
    0.1709    1.2643    0.5181 H   0  0  0  0  0  0  0  0  0  0  0  0
   -1.2076   -0.6526    1.3123 H   0  0  0  0  0  0  0  0  0  0  0  0
   -1.1483   -1.3619   -0.3004 H   0  0  0  0  0  0  0  0  0  0  0  0
   -2.2936    0.6490   -1.2257 H   0  0  0  0  0  0  0  0  0  0  0  0
   -2.3578    1.3536    0.3884 H   0  0  0  0  0  0  0  0  0  0  0  0
   -3.6886   -1.2643   -0.4535 H   0  0  0  0  0  0  0  0  0  0  0  0
   -3.7327   -0.5729    1.1715 H   0  0  0  0  0  0  0  0  0  0  0  0
   -4.8299    0.7620   -1.3545 H   0  0  0  0  0  0  0  0  0  0  0  0
   -4.8956    1.4478    0.2814 H   0  0  0  0  0  0  0  0  0  0  0  0
   -6.2054   -0.4305    0.7950 H   0  0  0  0  0  0  0  0  0  0  0  0
  1  2  1  0  0  0  0
  2  3  1  0  0  0  0
  3  4  1  0  0  0  0
  4  5  1  0  0  0  0
  5  6  1  0  0  0  0
  6  7  1  0  0  0  0
  7  8  1  0  0  0  0
  8  9  1  0  0  0  0
  9 10  1  0  0  0  0
 10 11  1  0  0  0  0
  1 12  1  0  0  0  0
  1 13  1  0  0  0  0
  1 14  1  0  0  0  0
  2 15  1  0  0  0  0
  2 16  1  0  0  0  0
  3 17  1  0  0  0  0
  3 18  1  0  0  0  0
  4 19  1  0  0  0  0
  4 20  1  0  0  0  0
  5 21  1  0  0  0  0
  5 22  1  0  0  0  0
  6 23  1  0  0  0  0
  6 24  1  0  0  0  0
  7 25  1  0  0  0  0
  7 26  1  0  0  0  0
  8 27  1  0  0  0  0
  8 28  1  0  0  0  0
  9 29  1  0  0  0  0
  9 30  1  0  0  0  0
 10 31  1  0  0  0  0
 10 32  1  0  0  0  0
 11 33  1  0  0  0  0
M  END
