 xtb: 6.7.1 (edcfbbe)
          04032517023D

 33 32  0     0  0            999 V2000
    4.8570   -1.2702    0.5368 C   0  0  0  0  0  0  0  0  0  0  0  0
    3.6425   -0.5132    1.0616 C   0  0  0  0  0  0  0  0  0  0  0  0
    2.8261    0.1077   -0.0700 C   0  0  0  0  0  0  0  0  0  0  0  0
    1.6019    0.8542    0.4553 C   0  0  0  0  0  0  0  0  0  0  0  0
    0.8382    1.6136   -0.6308 C   0  0  0  0  0  0  0  0  0  0  0  0
    0.2665    0.7414   -1.7512 C   0  0  0  0  0  0  0  0  0  0  0  0
   -0.6924   -0.3570   -1.2896 C   0  0  0  0  0  0  0  0  0  0  0  0
   -1.9402    0.1822   -0.5955 C   0  0  0  0  0  0  0  0  0  0  0  0
   -2.9383   -0.9304   -0.2826 C   0  0  0  0  0  0  0  0  0  0  0  0
   -4.1633   -0.4031    0.4595 C   0  0  0  0  0  0  0  0  0  0  0  0
   -3.7691    0.0518    1.7403 O   0  0  0  0  0  0  0  0  0  0  0  0
    5.4248   -1.7001    1.3583 H   0  0  0  0  0  0  0  0  0  0  0  0
    5.5099   -0.6018   -0.0201 H   0  0  0  0  0  0  0  0  0  0  0  0
    4.5468   -2.0753   -0.1255 H   0  0  0  0  0  0  0  0  0  0  0  0
    3.0070   -1.1958    1.6306 H   0  0  0  0  0  0  0  0  0  0  0  0
    3.9726    0.2745    1.7429 H   0  0  0  0  0  0  0  0  0  0  0  0
    3.4577    0.8009   -0.6310 H   0  0  0  0  0  0  0  0  0  0  0  0
    2.5120   -0.6837   -0.7528 H   0  0  0  0  0  0  0  0  0  0  0  0
    1.9291    1.5768    1.2078 H   0  0  0  0  0  0  0  0  0  0  0  0
    0.9335    0.1508    0.9547 H   0  0  0  0  0  0  0  0  0  0  0  0
    0.0250    2.1682   -0.1591 H   0  0  0  0  0  0  0  0  0  0  0  0
    1.5114    2.3462   -1.0836 H   0  0  0  0  0  0  0  0  0  0  0  0
    1.0890    0.2780   -2.2993 H   0  0  0  0  0  0  0  0  0  0  0  0
   -0.2616    1.3945   -2.4507 H   0  0  0  0  0  0  0  0  0  0  0  0
   -0.1742   -1.0447   -0.6198 H   0  0  0  0  0  0  0  0  0  0  0  0
   -1.0010   -0.9303   -2.1679 H   0  0  0  0  0  0  0  0  0  0  0  0
   -2.4194    0.9255   -1.2375 H   0  0  0  0  0  0  0  0  0  0  0  0
   -1.6694    0.6702    0.3415 H   0  0  0  0  0  0  0  0  0  0  0  0
   -3.2697   -1.4080   -1.2060 H   0  0  0  0  0  0  0  0  0  0  0  0
   -2.4570   -1.6841    0.3433 H   0  0  0  0  0  0  0  0  0  0  0  0
   -4.9049   -1.2079    0.5590 H   0  0  0  0  0  0  0  0  0  0  0  0
   -4.6135    0.4194   -0.1128 H   0  0  0  0  0  0  0  0  0  0  0  0
   -4.5374    0.4060    2.2060 H   0  0  0  0  0  0  0  0  0  0  0  0
  1  2  1  0  0  0  0
  2  3  1  0  0  0  0
  3  4  1  0  0  0  0
  4  5  1  0  0  0  0
  5  6  1  0  0  0  0
  6  7  1  0  0  0  0
  7  8  1  0  0  0  0
  8  9  1  0  0  0  0
  9 10  1  0  0  0  0
 10 11  1  0  0  0  0
  1 12  1  0  0  0  0
  1 13  1  0  0  0  0
  1 14  1  0  0  0  0
  2 15  1  0  0  0  0
  2 16  1  0  0  0  0
  3 17  1  0  0  0  0
  3 18  1  0  0  0  0
  4 19  1  0  0  0  0
  4 20  1  0  0  0  0
  5 21  1  0  0  0  0
  5 22  1  0  0  0  0
  6 23  1  0  0  0  0
  6 24  1  0  0  0  0
  7 25  1  0  0  0  0
  7 26  1  0  0  0  0
  8 27  1  0  0  0  0
  8 28  1  0  0  0  0
  9 29  1  0  0  0  0
  9 30  1  0  0  0  0
 10 31  1  0  0  0  0
 10 32  1  0  0  0  0
 11 33  1  0  0  0  0
M  END
