 xtb: 6.7.1 (edcfbbe)
          04032517023D

 33 32  0     0  0            999 V2000
    5.7118   -0.2730   -0.3019 C   0  0  0  0  0  0  0  0  0  0  0  0
    4.7288    0.4921    0.5776 C   0  0  0  0  0  0  0  0  0  0  0  0
    3.3230   -0.1110    0.5842 C   0  0  0  0  0  0  0  0  0  0  0  0
    2.6097    0.0105   -0.7613 C   0  0  0  0  0  0  0  0  0  0  0  0
    1.1825   -0.5402   -0.7359 C   0  0  0  0  0  0  0  0  0  0  0  0
    0.2035    0.3422    0.0364 C   0  0  0  0  0  0  0  0  0  0  0  0
   -1.2196   -0.2111   -0.0132 C   0  0  0  0  0  0  0  0  0  0  0  0
   -2.2036    0.6921    0.7286 C   0  0  0  0  0  0  0  0  0  0  0  0
   -3.6100    0.1057    0.8313 C   0  0  0  0  0  0  0  0  0  0  0  0
   -4.3169   -0.0133   -0.5163 C   0  0  0  0  0  0  0  0  0  0  0  0
   -5.6574   -0.4055   -0.2817 O   0  0  0  0  0  0  0  0  0  0  0  0
    5.7459   -1.3204   -0.0104 H   0  0  0  0  0  0  0  0  0  0  0  0
    6.7109    0.1443   -0.1999 H   0  0  0  0  0  0  0  0  0  0  0  0
    5.4269   -0.2151   -1.3489 H   0  0  0  0  0  0  0  0  0  0  0  0
    5.1074    0.4983    1.6026 H   0  0  0  0  0  0  0  0  0  0  0  0
    4.6726    1.5297    0.2408 H   0  0  0  0  0  0  0  0  0  0  0  0
    3.3858   -1.1654    0.8635 H   0  0  0  0  0  0  0  0  0  0  0  0
    2.7356    0.4001    1.3491 H   0  0  0  0  0  0  0  0  0  0  0  0
    3.1763   -0.5391   -1.5149 H   0  0  0  0  0  0  0  0  0  0  0  0
    2.5849    1.0602   -1.0633 H   0  0  0  0  0  0  0  0  0  0  0  0
    0.8256   -0.6343   -1.7645 H   0  0  0  0  0  0  0  0  0  0  0  0
    1.1907   -1.5411   -0.2981 H   0  0  0  0  0  0  0  0  0  0  0  0
    0.2135    1.3479   -0.3903 H   0  0  0  0  0  0  0  0  0  0  0  0
    0.5167    0.4208    1.0786 H   0  0  0  0  0  0  0  0  0  0  0  0
   -1.2347   -1.2063    0.4366 H   0  0  0  0  0  0  0  0  0  0  0  0
   -1.5252   -0.3122   -1.0560 H   0  0  0  0  0  0  0  0  0  0  0  0
   -2.2522    1.6620    0.2284 H   0  0  0  0  0  0  0  0  0  0  0  0
   -1.8299    0.8608    1.7407 H   0  0  0  0  0  0  0  0  0  0  0  0
   -3.5729   -0.8825    1.2930 H   0  0  0  0  0  0  0  0  0  0  0  0
   -4.2264    0.7433    1.4682 H   0  0  0  0  0  0  0  0  0  0  0  0
   -3.8137   -0.7584   -1.1448 H   0  0  0  0  0  0  0  0  0  0  0  0
   -4.2915    0.9574   -1.0309 H   0  0  0  0  0  0  0  0  0  0  0  0
   -6.1176   -0.4986   -1.1262 H   0  0  0  0  0  0  0  0  0  0  0  0
  1  2  1  0  0  0  0
  2  3  1  0  0  0  0
  3  4  1  0  0  0  0
  4  5  1  0  0  0  0
  5  6  1  0  0  0  0
  6  7  1  0  0  0  0
  7  8  1  0  0  0  0
  8  9  1  0  0  0  0
  9 10  1  0  0  0  0
 10 11  1  0  0  0  0
  1 12  1  0  0  0  0
  1 13  1  0  0  0  0
  1 14  1  0  0  0  0
  2 15  1  0  0  0  0
  2 16  1  0  0  0  0
  3 17  1  0  0  0  0
  3 18  1  0  0  0  0
  4 19  1  0  0  0  0
  4 20  1  0  0  0  0
  5 21  1  0  0  0  0
  5 22  1  0  0  0  0
  6 23  1  0  0  0  0
  6 24  1  0  0  0  0
  7 25  1  0  0  0  0
  7 26  1  0  0  0  0
  8 27  1  0  0  0  0
  8 28  1  0  0  0  0
  9 29  1  0  0  0  0
  9 30  1  0  0  0  0
 10 31  1  0  0  0  0
 10 32  1  0  0  0  0
 11 33  1  0  0  0  0
M  END
