 xtb: 6.7.1 (edcfbbe)
          04032517023D

 33 32  0     0  0            999 V2000
    4.4416   -1.6264    1.1825 C   0  0  0  0  0  0  0  0  0  0  0  0
    3.7427   -0.8703    0.0584 C   0  0  0  0  0  0  0  0  0  0  0  0
    3.3608    0.5451    0.4869 C   0  0  0  0  0  0  0  0  0  0  0  0
    2.7865    1.3947   -0.6483 C   0  0  0  0  0  0  0  0  0  0  0  0
    1.4849    0.8688   -1.2567 C   0  0  0  0  0  0  0  0  0  0  0  0
    0.3298    0.8041   -0.2596 C   0  0  0  0  0  0  0  0  0  0  0  0
   -0.9863    0.4323   -0.9388 C   0  0  0  0  0  0  0  0  0  0  0  0
   -2.1373    0.3425    0.0597 C   0  0  0  0  0  0  0  0  0  0  0  0
   -3.4630    0.0008   -0.6174 C   0  0  0  0  0  0  0  0  0  0  0  0
   -4.5844   -0.2072    0.4019 C   0  0  0  0  0  0  0  0  0  0  0  0
   -4.3595   -1.3044    1.2624 O   0  0  0  0  0  0  0  0  0  0  0  0
    5.3525   -1.1117    1.4803 H   0  0  0  0  0  0  0  0  0  0  0  0
    4.7041   -2.6319    0.8626 H   0  0  0  0  0  0  0  0  0  0  0  0
    3.7921   -1.7007    2.0519 H   0  0  0  0  0  0  0  0  0  0  0  0
    4.4039   -0.8172   -0.8098 H   0  0  0  0  0  0  0  0  0  0  0  0
    2.8480   -1.4208   -0.2363 H   0  0  0  0  0  0  0  0  0  0  0  0
    2.6451    0.4940    1.3090 H   0  0  0  0  0  0  0  0  0  0  0  0
    4.2547    1.0470    0.8665 H   0  0  0  0  0  0  0  0  0  0  0  0
    3.5340    1.4677   -1.4423 H   0  0  0  0  0  0  0  0  0  0  0  0
    2.6105    2.4042   -0.2684 H   0  0  0  0  0  0  0  0  0  0  0  0
    1.2019    1.5337   -2.0769 H   0  0  0  0  0  0  0  0  0  0  0  0
    1.6507   -0.1210   -1.6853 H   0  0  0  0  0  0  0  0  0  0  0  0
    0.2213    1.7749    0.2299 H   0  0  0  0  0  0  0  0  0  0  0  0
    0.5481    0.0650    0.5129 H   0  0  0  0  0  0  0  0  0  0  0  0
   -0.8700   -0.5281   -1.4466 H   0  0  0  0  0  0  0  0  0  0  0  0
   -1.2258    1.1802   -1.6986 H   0  0  0  0  0  0  0  0  0  0  0  0
   -2.2392    1.2959    0.5831 H   0  0  0  0  0  0  0  0  0  0  0  0
   -1.9150   -0.4199    0.8096 H   0  0  0  0  0  0  0  0  0  0  0  0
   -3.7548    0.8075   -1.2914 H   0  0  0  0  0  0  0  0  0  0  0  0
   -3.3444   -0.9080   -1.2124 H   0  0  0  0  0  0  0  0  0  0  0  0
   -5.5440   -0.3293   -0.1191 H   0  0  0  0  0  0  0  0  0  0  0  0
   -4.6588    0.6621    1.0599 H   0  0  0  0  0  0  0  0  0  0  0  0
   -4.3048   -2.1112    0.7314 H   0  0  0  0  0  0  0  0  0  0  0  0
  1  2  1  0  0  0  0
  2  3  1  0  0  0  0
  3  4  1  0  0  0  0
  4  5  1  0  0  0  0
  5  6  1  0  0  0  0
  6  7  1  0  0  0  0
  7  8  1  0  0  0  0
  8  9  1  0  0  0  0
  9 10  1  0  0  0  0
 10 11  1  0  0  0  0
  1 12  1  0  0  0  0
  1 13  1  0  0  0  0
  1 14  1  0  0  0  0
  2 15  1  0  0  0  0
  2 16  1  0  0  0  0
  3 17  1  0  0  0  0
  3 18  1  0  0  0  0
  4 19  1  0  0  0  0
  4 20  1  0  0  0  0
  5 21  1  0  0  0  0
  5 22  1  0  0  0  0
  6 23  1  0  0  0  0
  6 24  1  0  0  0  0
  7 25  1  0  0  0  0
  7 26  1  0  0  0  0
  8 27  1  0  0  0  0
  8 28  1  0  0  0  0
  9 29  1  0  0  0  0
  9 30  1  0  0  0  0
 10 31  1  0  0  0  0
 10 32  1  0  0  0  0
 11 33  1  0  0  0  0
M  END
