 xtb: 6.7.1 (edcfbbe)
          04032517023D

 33 32  0     0  0            999 V2000
    4.4305   -1.9423   -0.0469 C   0  0  0  0  0  0  0  0  0  0  0  0
    3.0928   -1.2113   -0.0555 C   0  0  0  0  0  0  0  0  0  0  0  0
    3.2678    0.2801   -0.3366 C   0  0  0  0  0  0  0  0  0  0  0  0
    1.9426    1.0335   -0.4582 C   0  0  0  0  0  0  0  0  0  0  0  0
    1.1784    1.1187    0.8619 C   0  0  0  0  0  0  0  0  0  0  0  0
   -0.0320    2.0525    0.7987 C   0  0  0  0  0  0  0  0  0  0  0  0
   -1.1071    1.6464   -0.2112 C   0  0  0  0  0  0  0  0  0  0  0  0
   -1.7167    0.2759    0.0713 C   0  0  0  0  0  0  0  0  0  0  0  0
   -2.8870   -0.0269   -0.8617 C   0  0  0  0  0  0  0  0  0  0  0  0
   -3.5108   -1.3884   -0.5672 C   0  0  0  0  0  0  0  0  0  0  0  0
   -4.1101   -1.3563    0.7144 O   0  0  0  0  0  0  0  0  0  0  0  0
    5.0835   -1.5300    0.7191 H   0  0  0  0  0  0  0  0  0  0  0  0
    4.9269   -1.8411   -1.0096 H   0  0  0  0  0  0  0  0  0  0  0  0
    4.2874   -3.0008    0.1567 H   0  0  0  0  0  0  0  0  0  0  0  0
    2.4469   -1.6472   -0.8214 H   0  0  0  0  0  0  0  0  0  0  0  0
    2.6053   -1.3491    0.9108 H   0  0  0  0  0  0  0  0  0  0  0  0
    3.8680    0.7286    0.4588 H   0  0  0  0  0  0  0  0  0  0  0  0
    3.8222    0.3949   -1.2716 H   0  0  0  0  0  0  0  0  0  0  0  0
    1.3259    0.5399   -1.2113 H   0  0  0  0  0  0  0  0  0  0  0  0
    2.1478    2.0482   -0.8086 H   0  0  0  0  0  0  0  0  0  0  0  0
    0.8512    0.1250    1.1674 H   0  0  0  0  0  0  0  0  0  0  0  0
    1.8554    1.4925    1.6344 H   0  0  0  0  0  0  0  0  0  0  0  0
    0.3133    3.0591    0.5493 H   0  0  0  0  0  0  0  0  0  0  0  0
   -0.4860    2.0965    1.7918 H   0  0  0  0  0  0  0  0  0  0  0  0
   -0.6900    1.6568   -1.2196 H   0  0  0  0  0  0  0  0  0  0  0  0
   -1.9016    2.3962   -0.1805 H   0  0  0  0  0  0  0  0  0  0  0  0
   -2.0738    0.2372    1.1023 H   0  0  0  0  0  0  0  0  0  0  0  0
   -0.9594   -0.5002   -0.0529 H   0  0  0  0  0  0  0  0  0  0  0  0
   -3.6574    0.7366   -0.7400 H   0  0  0  0  0  0  0  0  0  0  0  0
   -2.5500   -0.0157   -1.8995 H   0  0  0  0  0  0  0  0  0  0  0  0
   -2.7336   -2.1640   -0.6026 H   0  0  0  0  0  0  0  0  0  0  0  0
   -4.2681   -1.6164   -1.3301 H   0  0  0  0  0  0  0  0  0  0  0  0
   -4.4857   -2.2230    0.9153 H   0  0  0  0  0  0  0  0  0  0  0  0
  1  2  1  0  0  0  0
  2  3  1  0  0  0  0
  3  4  1  0  0  0  0
  4  5  1  0  0  0  0
  5  6  1  0  0  0  0
  6  7  1  0  0  0  0
  7  8  1  0  0  0  0
  8  9  1  0  0  0  0
  9 10  1  0  0  0  0
 10 11  1  0  0  0  0
  1 12  1  0  0  0  0
  1 13  1  0  0  0  0
  1 14  1  0  0  0  0
  2 15  1  0  0  0  0
  2 16  1  0  0  0  0
  3 17  1  0  0  0  0
  3 18  1  0  0  0  0
  4 19  1  0  0  0  0
  4 20  1  0  0  0  0
  5 21  1  0  0  0  0
  5 22  1  0  0  0  0
  6 23  1  0  0  0  0
  6 24  1  0  0  0  0
  7 25  1  0  0  0  0
  7 26  1  0  0  0  0
  8 27  1  0  0  0  0
  8 28  1  0  0  0  0
  9 29  1  0  0  0  0
  9 30  1  0  0  0  0
 10 31  1  0  0  0  0
 10 32  1  0  0  0  0
 11 33  1  0  0  0  0
M  END
