 xtb: 6.7.1 (edcfbbe)
          04032517023D

 33 32  0     0  0            999 V2000
    5.1572   -1.2429    0.8681 C   0  0  0  0  0  0  0  0  0  0  0  0
    3.8119   -0.5272    0.8260 C   0  0  0  0  0  0  0  0  0  0  0  0
    3.6816    0.3504   -0.4176 C   0  0  0  0  0  0  0  0  0  0  0  0
    2.3982    1.1815   -0.4482 C   0  0  0  0  0  0  0  0  0  0  0  0
    1.1335    0.3405   -0.6126 C   0  0  0  0  0  0  0  0  0  0  0  0
   -0.1096    1.2187   -0.7454 C   0  0  0  0  0  0  0  0  0  0  0  0
   -1.3895    0.4273   -1.0215 C   0  0  0  0  0  0  0  0  0  0  0  0
   -1.8309   -0.4357    0.1601 C   0  0  0  0  0  0  0  0  0  0  0  0
   -3.1550   -1.1622   -0.0933 C   0  0  0  0  0  0  0  0  0  0  0  0
   -4.3884   -0.2560   -0.0501 C   0  0  0  0  0  0  0  0  0  0  0  0
   -4.7417    0.1495    1.2570 O   0  0  0  0  0  0  0  0  0  0  0  0
    5.2317   -1.8666    1.7556 H   0  0  0  0  0  0  0  0  0  0  0  0
    5.9724   -0.5228    0.8844 H   0  0  0  0  0  0  0  0  0  0  0  0
    5.2785   -1.8759   -0.0082 H   0  0  0  0  0  0  0  0  0  0  0  0
    3.0135   -1.2707    0.8389 H   0  0  0  0  0  0  0  0  0  0  0  0
    3.7042    0.0949    1.7175 H   0  0  0  0  0  0  0  0  0  0  0  0
    4.5367    1.0301   -0.4537 H   0  0  0  0  0  0  0  0  0  0  0  0
    3.7244   -0.2795   -1.3093 H   0  0  0  0  0  0  0  0  0  0  0  0
    2.4605    1.8864   -1.2812 H   0  0  0  0  0  0  0  0  0  0  0  0
    2.3259    1.7661    0.4721 H   0  0  0  0  0  0  0  0  0  0  0  0
    1.2302   -0.2828   -1.5047 H   0  0  0  0  0  0  0  0  0  0  0  0
    1.0237   -0.3188    0.2482 H   0  0  0  0  0  0  0  0  0  0  0  0
    0.0470    1.9219   -1.5673 H   0  0  0  0  0  0  0  0  0  0  0  0
   -0.2354    1.8052    0.1678 H   0  0  0  0  0  0  0  0  0  0  0  0
   -1.2362   -0.2117   -1.8940 H   0  0  0  0  0  0  0  0  0  0  0  0
   -2.1826    1.1355   -1.2690 H   0  0  0  0  0  0  0  0  0  0  0  0
   -1.9109    0.1878    1.0535 H   0  0  0  0  0  0  0  0  0  0  0  0
   -1.0662   -1.1881    0.3576 H   0  0  0  0  0  0  0  0  0  0  0  0
   -3.1185   -1.6430   -1.0717 H   0  0  0  0  0  0  0  0  0  0  0  0
   -3.2908   -1.9403    0.6608 H   0  0  0  0  0  0  0  0  0  0  0  0
   -5.2587   -0.8051   -0.4177 H   0  0  0  0  0  0  0  0  0  0  0  0
   -4.2451    0.6242   -0.6897 H   0  0  0  0  0  0  0  0  0  0  0  0
   -4.0021    0.6385    1.6429 H   0  0  0  0  0  0  0  0  0  0  0  0
  1  2  1  0  0  0  0
  2  3  1  0  0  0  0
  3  4  1  0  0  0  0
  4  5  1  0  0  0  0
  5  6  1  0  0  0  0
  6  7  1  0  0  0  0
  7  8  1  0  0  0  0
  8  9  1  0  0  0  0
  9 10  1  0  0  0  0
 10 11  1  0  0  0  0
  1 12  1  0  0  0  0
  1 13  1  0  0  0  0
  1 14  1  0  0  0  0
  2 15  1  0  0  0  0
  2 16  1  0  0  0  0
  3 17  1  0  0  0  0
  3 18  1  0  0  0  0
  4 19  1  0  0  0  0
  4 20  1  0  0  0  0
  5 21  1  0  0  0  0
  5 22  1  0  0  0  0
  6 23  1  0  0  0  0
  6 24  1  0  0  0  0
  7 25  1  0  0  0  0
  7 26  1  0  0  0  0
  8 27  1  0  0  0  0
  8 28  1  0  0  0  0
  9 29  1  0  0  0  0
  9 30  1  0  0  0  0
 10 31  1  0  0  0  0
 10 32  1  0  0  0  0
 11 33  1  0  0  0  0
M  END
