 xtb: 6.7.1 (edcfbbe)
          04032517493D

 40 40  0     0  0            999 V2000
   -3.0004   -2.8933    0.7465 C   0  0  0  0  0  0  0  0  0  0  0  0
   -3.6396   -1.5620    0.4042 C   0  0  0  0  0  0  0  0  0  0  0  0
   -2.8428   -0.8106   -0.5233 O   0  0  0  0  0  0  0  0  0  0  0  0
   -1.4678   -0.1308   -0.1108 P   0  0  0  0  0  0  0  0  0  0  0  0
   -1.4298    0.5195    1.7345 S   0  0  0  0  0  0  0  0  0  0  0  0
   -1.2555    0.8830   -1.3017 O   0  0  0  0  0  0  0  0  0  0  0  0
   -1.6618    2.2582   -1.1754 C   0  0  0  0  0  0  0  0  0  0  0  0
   -3.1705    2.3999   -1.1505 C   0  0  0  0  0  0  0  0  0  0  0  0
   -0.4632   -1.3433   -0.5175 O   0  0  0  0  0  0  0  0  0  0  0  0
    0.8570   -1.0695   -0.3697 C   0  0  0  0  0  0  0  0  0  0  0  0
    1.8134   -2.0557   -0.5308 C   0  0  0  0  0  0  0  0  0  0  0  0
    3.1325   -1.6478   -0.3412 C   0  0  0  0  0  0  0  0  0  0  0  0
    3.4180   -0.3863   -0.0209 N   0  0  0  0  0  0  0  0  0  0  0  0
    2.4313    0.4810    0.1102 C   0  0  0  0  0  0  0  0  0  0  0  0
    1.1420    0.1799   -0.0610 N   0  0  0  0  0  0  0  0  0  0  0  0
    2.7751    1.8947    0.4718 C   0  0  0  0  0  0  0  0  0  0  0  0
    2.1329    2.2492    1.8147 C   0  0  0  0  0  0  0  0  0  0  0  0
    2.2918    2.8392   -0.6299 C   0  0  0  0  0  0  0  0  0  0  0  0
    4.2704   -2.5972   -0.4764 C   0  0  0  0  0  0  0  0  0  0  0  0
   -3.6702   -3.4660    1.3801 H   0  0  0  0  0  0  0  0  0  0  0  0
   -2.7897   -3.4527   -0.1613 H   0  0  0  0  0  0  0  0  0  0  0  0
   -2.0651   -2.7244    1.2794 H   0  0  0  0  0  0  0  0  0  0  0  0
   -3.7778   -0.9619    1.3100 H   0  0  0  0  0  0  0  0  0  0  0  0
   -4.5947   -1.6925   -0.1064 H   0  0  0  0  0  0  0  0  0  0  0  0
   -1.2257    2.6668   -0.2581 H   0  0  0  0  0  0  0  0  0  0  0  0
   -1.2242    2.7458   -2.0480 H   0  0  0  0  0  0  0  0  0  0  0  0
   -3.4344    3.4527   -1.1565 H   0  0  0  0  0  0  0  0  0  0  0  0
   -3.6080    1.9092   -2.0158 H   0  0  0  0  0  0  0  0  0  0  0  0
   -3.5671    1.9392   -0.2468 H   0  0  0  0  0  0  0  0  0  0  0  0
    1.5396   -3.0643   -0.7845 H   0  0  0  0  0  0  0  0  0  0  0  0
    3.8628    1.9533    0.5582 H   0  0  0  0  0  0  0  0  0  0  0  0
    1.0562    2.1025    1.7682 H   0  0  0  0  0  0  0  0  0  0  0  0
    2.3380    3.2868    2.0612 H   0  0  0  0  0  0  0  0  0  0  0  0
    2.5275    1.6161    2.6057 H   0  0  0  0  0  0  0  0  0  0  0  0
    2.7886    2.6139   -1.5704 H   0  0  0  0  0  0  0  0  0  0  0  0
    2.5071    3.8675   -0.3551 H   0  0  0  0  0  0  0  0  0  0  0  0
    1.2198    2.7236   -0.7653 H   0  0  0  0  0  0  0  0  0  0  0  0
    4.2295   -3.3302    0.3266 H   0  0  0  0  0  0  0  0  0  0  0  0
    4.2040   -3.1298   -1.4214 H   0  0  0  0  0  0  0  0  0  0  0  0
    5.2074   -2.0544   -0.4178 H   0  0  0  0  0  0  0  0  0  0  0  0
  1  2  1  0  0  0  0
  2  3  1  0  0  0  0
  3  4  1  0  0  0  0
  4  5  2  0  0  0  0
  4  6  1  0  0  0  0
  6  7  1  0  0  0  0
  7  8  1  0  0  0  0
  4  9  1  0  0  0  0
  9 10  1  0  0  0  0
 10 11  4  0  0  0  0
 11 12  4  0  0  0  0
 12 13  4  0  0  0  0
 13 14  4  0  0  0  0
 10 15  4  0  0  0  0
 14 15  4  0  0  0  0
 14 16  1  0  0  0  0
 16 17  1  0  0  0  0
 16 18  1  0  0  0  0
 12 19  1  0  0  0  0
  1 20  1  0  0  0  0
  1 21  1  0  0  0  0
  1 22  1  0  0  0  0
  2 23  1  0  0  0  0
  2 24  1  0  0  0  0
  7 25  1  0  0  0  0
  7 26  1  0  0  0  0
  8 27  1  0  0  0  0
  8 28  1  0  0  0  0
  8 29  1  0  0  0  0
 11 30  1  0  0  0  0
 16 31  1  0  0  0  0
 17 32  1  0  0  0  0
 17 33  1  0  0  0  0
 17 34  1  0  0  0  0
 18 35  1  0  0  0  0
 18 36  1  0  0  0  0
 18 37  1  0  0  0  0
 19 38  1  0  0  0  0
 19 39  1  0  0  0  0
 19 40  1  0  0  0  0
M  END
