 xtb: 6.7.1 (edcfbbe)
          04032517023D

 33 32  0     0  0            999 V2000
    3.1139   -1.8394    0.8977 C   0  0  0  0  0  0  0  0  0  0  0  0
    3.7617   -0.4666    0.7546 C   0  0  0  0  0  0  0  0  0  0  0  0
    3.5709    0.1504   -0.6326 C   0  0  0  0  0  0  0  0  0  0  0  0
    2.1166    0.4312   -1.0156 C   0  0  0  0  0  0  0  0  0  0  0  0
    1.4502    1.4714   -0.1172 C   0  0  0  0  0  0  0  0  0  0  0  0
    0.0912    1.9383   -0.6427 C   0  0  0  0  0  0  0  0  0  0  0  0
   -0.9708    0.8422   -0.7590 C   0  0  0  0  0  0  0  0  0  0  0  0
   -1.3356    0.2127    0.5846 C   0  0  0  0  0  0  0  0  0  0  0  0
   -2.4273   -0.8519    0.4722 C   0  0  0  0  0  0  0  0  0  0  0  0
   -3.8058   -0.2704    0.1549 C   0  0  0  0  0  0  0  0  0  0  0  0
   -4.8353   -1.2360    0.2384 O   0  0  0  0  0  0  0  0  0  0  0  0
    3.4645   -2.5082    0.1145 H   0  0  0  0  0  0  0  0  0  0  0  0
    2.0312   -1.7708    0.8329 H   0  0  0  0  0  0  0  0  0  0  0  0
    3.3668   -2.2764    1.8609 H   0  0  0  0  0  0  0  0  0  0  0  0
    3.3630    0.2061    1.5155 H   0  0  0  0  0  0  0  0  0  0  0  0
    4.8348   -0.5637    0.9371 H   0  0  0  0  0  0  0  0  0  0  0  0
    4.1328    1.0870   -0.6761 H   0  0  0  0  0  0  0  0  0  0  0  0
    4.0012   -0.5258   -1.3758 H   0  0  0  0  0  0  0  0  0  0  0  0
    1.5519   -0.5004   -0.9890 H   0  0  0  0  0  0  0  0  0  0  0  0
    2.1000    0.7966   -2.0457 H   0  0  0  0  0  0  0  0  0  0  0  0
    1.3318    1.0727    0.8903 H   0  0  0  0  0  0  0  0  0  0  0  0
    2.1046    2.3443   -0.0477 H   0  0  0  0  0  0  0  0  0  0  0  0
    0.2336    2.3846   -1.6302 H   0  0  0  0  0  0  0  0  0  0  0  0
   -0.2865    2.7208    0.0200 H   0  0  0  0  0  0  0  0  0  0  0  0
   -0.6227    0.0647   -1.4409 H   0  0  0  0  0  0  0  0  0  0  0  0
   -1.8637    1.2898   -1.1994 H   0  0  0  0  0  0  0  0  0  0  0  0
   -1.6625    0.9939    1.2744 H   0  0  0  0  0  0  0  0  0  0  0  0
   -0.4492   -0.2581    1.0121 H   0  0  0  0  0  0  0  0  0  0  0  0
   -2.1513   -1.5734   -0.3009 H   0  0  0  0  0  0  0  0  0  0  0  0
   -2.5049   -1.3885    1.4206 H   0  0  0  0  0  0  0  0  0  0  0  0
   -3.8127    0.1938   -0.8394 H   0  0  0  0  0  0  0  0  0  0  0  0
   -4.0683    0.4922    0.8924 H   0  0  0  0  0  0  0  0  0  0  0  0
   -4.6563   -1.9418   -0.3981 H   0  0  0  0  0  0  0  0  0  0  0  0
  1  2  1  0  0  0  0
  2  3  1  0  0  0  0
  3  4  1  0  0  0  0
  4  5  1  0  0  0  0
  5  6  1  0  0  0  0
  6  7  1  0  0  0  0
  7  8  1  0  0  0  0
  8  9  1  0  0  0  0
  9 10  1  0  0  0  0
 10 11  1  0  0  0  0
  1 12  1  0  0  0  0
  1 13  1  0  0  0  0
  1 14  1  0  0  0  0
  2 15  1  0  0  0  0
  2 16  1  0  0  0  0
  3 17  1  0  0  0  0
  3 18  1  0  0  0  0
  4 19  1  0  0  0  0
  4 20  1  0  0  0  0
  5 21  1  0  0  0  0
  5 22  1  0  0  0  0
  6 23  1  0  0  0  0
  6 24  1  0  0  0  0
  7 25  1  0  0  0  0
  7 26  1  0  0  0  0
  8 27  1  0  0  0  0
  8 28  1  0  0  0  0
  9 29  1  0  0  0  0
  9 30  1  0  0  0  0
 10 31  1  0  0  0  0
 10 32  1  0  0  0  0
 11 33  1  0  0  0  0
M  END
