 xtb: 6.7.1 (edcfbbe)
          04032517023D

 33 32  0     0  0            999 V2000
    3.0867   -1.9586   -0.6041 C   0  0  0  0  0  0  0  0  0  0  0  0
    3.7502   -0.5880   -0.6808 C   0  0  0  0  0  0  0  0  0  0  0  0
    3.5712    0.2429    0.5917 C   0  0  0  0  0  0  0  0  0  0  0  0
    2.1209    0.5909    0.9320 C   0  0  0  0  0  0  0  0  0  0  0  0
    1.4534    1.4752   -0.1195 C   0  0  0  0  0  0  0  0  0  0  0  0
    0.0948    2.0192    0.3268 C   0  0  0  0  0  0  0  0  0  0  0  0
   -0.9680    0.9553    0.6127 C   0  0  0  0  0  0  0  0  0  0  0  0
   -1.3378    0.1290   -0.6181 C   0  0  0  0  0  0  0  0  0  0  0  0
   -2.4215   -0.9130   -0.3403 C   0  0  0  0  0  0  0  0  0  0  0  0
   -3.7947   -0.2975   -0.0660 C   0  0  0  0  0  0  0  0  0  0  0  0
   -4.8262   -1.2641   -0.0312 O   0  0  0  0  0  0  0  0  0  0  0  0
    3.3292   -2.5441   -1.4878 H   0  0  0  0  0  0  0  0  0  0  0  0
    2.0052   -1.8679   -0.5466 H   0  0  0  0  0  0  0  0  0  0  0  0
    3.4344   -2.5002    0.2729 H   0  0  0  0  0  0  0  0  0  0  0  0
    4.8216   -0.7249   -0.8474 H   0  0  0  0  0  0  0  0  0  0  0  0
    3.3564   -0.0395   -1.5379 H   0  0  0  0  0  0  0  0  0  0  0  0
    4.0012   -0.3097    1.4310 H   0  0  0  0  0  0  0  0  0  0  0  0
    4.1392    1.1704    0.4832 H   0  0  0  0  0  0  0  0  0  0  0  0
    2.1125    1.1188    1.8892 H   0  0  0  0  0  0  0  0  0  0  0  0
    1.5515   -0.3293    1.0602 H   0  0  0  0  0  0  0  0  0  0  0  0
    2.1075    2.3259   -0.3277 H   0  0  0  0  0  0  0  0  0  0  0  0
    1.3339    0.9215   -1.0507 H   0  0  0  0  0  0  0  0  0  0  0  0
   -0.2828    2.6890   -0.4498 H   0  0  0  0  0  0  0  0  0  0  0  0
    0.2377    2.6140    1.2325 H   0  0  0  0  0  0  0  0  0  0  0  0
   -1.8591    1.4664    0.9816 H   0  0  0  0  0  0  0  0  0  0  0  0
   -0.6190    0.2907    1.4045 H   0  0  0  0  0  0  0  0  0  0  0  0
   -0.4515   -0.3961   -0.9773 H   0  0  0  0  0  0  0  0  0  0  0  0
   -1.6743    0.7965   -1.4145 H   0  0  0  0  0  0  0  0  0  0  0  0
   -2.5199   -1.5671   -1.2099 H   0  0  0  0  0  0  0  0  0  0  0  0
   -2.1229   -1.5285    0.5120 H   0  0  0  0  0  0  0  0  0  0  0  0
   -4.0677    0.3833   -0.8764 H   0  0  0  0  0  0  0  0  0  0  0  0
   -3.7863    0.2692    0.8737 H   0  0  0  0  0  0  0  0  0  0  0  0
   -4.6366   -1.9005    0.6721 H   0  0  0  0  0  0  0  0  0  0  0  0
  1  2  1  0  0  0  0
  2  3  1  0  0  0  0
  3  4  1  0  0  0  0
  4  5  1  0  0  0  0
  5  6  1  0  0  0  0
  6  7  1  0  0  0  0
  7  8  1  0  0  0  0
  8  9  1  0  0  0  0
  9 10  1  0  0  0  0
 10 11  1  0  0  0  0
  1 12  1  0  0  0  0
  1 13  1  0  0  0  0
  1 14  1  0  0  0  0
  2 15  1  0  0  0  0
  2 16  1  0  0  0  0
  3 17  1  0  0  0  0
  3 18  1  0  0  0  0
  4 19  1  0  0  0  0
  4 20  1  0  0  0  0
  5 21  1  0  0  0  0
  5 22  1  0  0  0  0
  6 23  1  0  0  0  0
  6 24  1  0  0  0  0
  7 25  1  0  0  0  0
  7 26  1  0  0  0  0
  8 27  1  0  0  0  0
  8 28  1  0  0  0  0
  9 29  1  0  0  0  0
  9 30  1  0  0  0  0
 10 31  1  0  0  0  0
 10 32  1  0  0  0  0
 11 33  1  0  0  0  0
M  END
